6
 -76.47006 frame 0   xyz file generated by terachem
   O      -4.4798000000   -2.8400000000    4.2456000000
   H      -4.8525000000   -3.7649000000    4.3951000000
   H      -3.6050000000   -2.7568000000    4.9264000000
 pnt      -2.6793000000   -2.1596000000    5.9264000000
 pnt      -1.7944000000   -2.5941000000    6.0208000000
 pnt      -2.4543000000   -1.2247000000    5.9247000000
